21
Properties=species:S:1:pos:R:3:forces:R:3 energy=-17617.635736390483 pbc="F F F"
C        1.61318763      -1.56742985      -0.89466401      -1.89446288      -1.01802623       0.38222114
C        1.01551967       1.19221874      -1.10461517      -2.09338058      -0.16841196       0.77123878
C        2.28088014      -0.74645201      -1.81344261      -1.68211882       0.80554230       1.28258957
C        1.87043010       0.60968469      -1.98164061       2.50983068       0.55986028       0.30509536
C       -2.54430440       2.30354962       1.00127839      -0.60321290      -1.80714016      -0.91547820
C        0.43217774      -1.09405421      -0.12762032       1.82857082       1.63873853      -1.82935954
C        0.23418816       0.30109684      -0.31087496      -0.34465453       0.12234780      -0.51599564
O       -1.21531485      -1.62242368       1.67171579       0.52385350       0.62923304      -1.87305653
O       -0.28718535       2.96133629       0.62865934      -1.04018391      -1.73710281       0.26140937
O        0.04174868      -3.21155141       0.71744210       1.11746760       1.43786036      -2.23384767
C       -0.41814412      -1.90381034       0.76259486       0.48738671      -1.58865553       2.42450796
C       -1.15391792       2.07312485       0.60671236       2.24785129       1.69010889      -1.14069387
O       -0.97450012       0.80471931       0.03077474      -1.31126510       0.75452697       2.00862315
H       -0.50941170      -3.70017036       1.29192786      -1.43298956      -1.18437493       1.67701831
H        1.76568599      -2.68533731      -0.86775262       0.38076322       0.94244230       0.20183323
H        0.66242419       2.26112090      -1.04489703       0.75547133      -0.85040987      -0.43762499
H        3.18875770      -1.04702767      -2.25497177       1.25761479      -0.88245488      -1.12354600
H        2.46068173       1.36689324      -2.53275667       0.10866083      -0.63596723      -0.65027506
H       -3.14939722       1.89550786       0.15334079      -0.09176251       0.12763815       0.25393090
H       -2.72749100       1.57587004       1.82397455      -0.44701878       0.69740418       0.33182266
H       -2.71354550       3.37246729       1.06274601      -0.27642117       0.46684076       0.81958706
21
Properties=species:S:1:pos:R:3:forces:R:3 energy=-17618.047421677205 pbc="F F F"
C        2.01017788      -0.97843255      -0.33918211      -0.80110674       1.06524657       0.74784960
C        1.12901693       1.35446383      -1.43136241      -1.17856753       2.28865096      -0.66767866
C        2.88585291      -0.28190778      -1.16017476      -0.81508028       0.33879416      -1.72381015
C        2.33094812       0.85128818      -1.82127186       1.90980378      -0.90984116      -0.37616135
C       -3.10423541       1.43895964       0.37005893      -0.45281451      -0.86114645       2.30516969
C        0.78805605      -0.42171847       0.17591585       0.66858333       0.00849945      -1.08878369
C        0.37840049       0.81720233      -0.40798597      -2.17786074      -1.06636880       1.26753087
O       -0.58538704      -0.41823136       2.13243545      -0.47247250       0.21839531      -0.36689088
O       -2.11716998      -0.47135863      -0.77573036      -0.30814546      -3.03783153      -1.48923596
O        0.33682466      -2.39180603       1.55232777       0.73387704       0.82152439      -2.10984254
C        0.05200152      -1.04761967       1.30391992       0.49852710      -1.05488378       1.86093671
C       -2.09775961       0.56230953      -0.24302773       2.35900605       3.59551701       1.78151812
O       -0.88646874       1.37658047      -0.08951713       1.36538865      -0.93736344      -0.70017459
H        0.01493895      -2.68936577       2.41051341      -0.55991520       0.39749869       0.63688105
H        2.19376448      -1.99737924      -0.14011604       0.58047539      -1.61071180       0.92217063
H        0.75237702       2.26277378      -1.95718102      -0.13048267      -0.44736505       0.22552025
H        3.80491628      -0.72216685      -1.59149383      -0.14299299      -0.11206791       0.37601974
H        2.77859645       1.22874169      -2.76524699       0.24490735       0.16553489       0.52940215
H       -2.73668392       1.79941086       1.40503254      -0.22786283       0.02165528      -1.60607769
H       -3.30127776       2.18580973      -0.37859005      -0.43872589       1.18432762      -0.25263378
Mg       -3.98301721       0.83099475       0.60090396      -0.65454135      -0.06806448      -0.27170957
